OPT_V10/Two_days_MYC3/powerflow_results_t40.txt
Pandapower Network Debug Info
==================================================

BUS:
       vm_pu  va_degree      p_mw    q_mvar
0   0.992844   0.148348  0.000833  0.000874
1   0.988356   0.259193  0.001537  0.002091
2   0.984398   0.382581  0.001554  0.003528
3   0.988825   0.227544  0.002715  0.004150
4   0.999882   0.001152  0.011402  0.011865
5   0.999868   0.001248  0.009631  0.010099
6   0.999858   0.001311  0.011671  0.011345
7   0.999927   0.000806  0.000000  0.000000
8   0.999927   0.000813  0.000000  0.000000
9   1.000000   0.000000 -0.039501 -0.049058
10  1.000000   0.000007  0.000000  0.000000
--------------------------------------------------

LINE:
   p_from_mw  q_from_mvar   p_to_mw  q_to_mvar         pl_mw       ql_mvar  i_from_ka   i_to_ka      i_ka  vm_from_pu  va_from_degree  vm_to_pu  va_to_degree  loading_percent
0   0.039491     0.045058 -0.039487  -0.045055  3.511214e-06  2.737751e-06   0.002306  0.002306  0.002306    1.000000        0.000007  0.999927      0.000806         1.002651
1   0.032706     0.033310 -0.032705  -0.033309  1.685450e-06  1.314173e-06   0.001797  0.001797  0.001797    0.999927        0.000806  0.999882      0.001152         0.781284
2   0.006771     0.010745 -0.006695  -0.010686  7.545175e-05  5.883097e-05   0.018332  0.018332  0.018332    0.999927        0.000813  0.992844      0.148348         7.970636
3  -0.021302    -0.021444  0.021303   0.021444  3.160410e-07  2.464224e-07   0.001164  0.001164  0.001164    0.999868        0.001248  0.999882      0.001152         0.505901
4  -0.011671    -0.011345  0.011671   0.011345  1.295992e-07  1.010507e-07   0.000627  0.000627  0.000627    0.999858        0.001311  0.999868      0.001248         0.272419
5  -0.003105    -0.005630  0.003130   0.005650  2.503738e-05  1.952206e-05   0.009390  0.009390  0.009390    0.988356        0.259193  0.992844      0.148348         4.082468
6  -0.002715    -0.004150  0.002732   0.004163  1.679259e-05  1.309346e-05   0.007239  0.007239  0.007239    0.988825        0.227544  0.992844      0.148348         3.147203
7  -0.001554    -0.003528  0.001568   0.003539  1.387245e-05  1.081658e-05   0.005652  0.005652  0.005652    0.984398        0.382581  0.988356      0.259193         2.457544
--------------------------------------------------

TRAFO:
    p_hv_mw  q_hv_mvar   p_lv_mw  q_lv_mvar    pl_mw  ql_mvar   i_hv_ka   i_lv_ka  vm_hv_pu  va_hv_degree  vm_lv_pu  va_lv_degree  loading_percent
0  0.006781   0.011745 -0.006771  -0.010745  0.00001    0.001  0.000522  0.018332  0.999927      0.000806  0.999927      0.000813         0.135625
1  0.039501   0.049058 -0.039491  -0.045058  0.00001    0.004  0.000519  0.002306  1.000000      0.000000  1.000000      0.000007         0.157460
--------------------------------------------------
